<?xml version="1.0" encoding="UTF-8"?>
<configuration>
    <input>
        <net-file value="../net/intersection.net.xml"/>
        <route-files value="../routes/traffic.rou.xml"/>
    </input>
    <time>
        <begin value="0"/>
        <end value="600"/>
    </time>
    <processing>
        <time-to-teleport value="-1"/>
    </processing>
</configuration>
